52
Ba2 Cu3 O7 Y
Ba    1.972000    1.972000   25.851088
Ba    1.972000    1.972000   37.693089
Ba    1.972000    1.972000   49.535088
Ba    1.972000    1.972000   61.377087
Ba    1.972000    1.972000   21.516912
Ba    1.972000    1.972000   33.358913
Ba    1.972000    1.972000   45.200912
Ba    1.972000    1.972000   57.042912
 Y    1.972000    1.972000   17.763000
 Y    1.972000    1.972000   29.605000
 Y    1.972000    1.972000   41.446999
 Y    1.972000    1.972000   53.289001
Cu    0.000000    0.000000   23.684000
Cu    0.000000    0.000000   35.526001
Cu    0.000000    0.000000   47.368000
Cu    0.000000    0.000000   59.209999
Cu    0.000000    0.000000   16.037621
Cu    0.000000    0.000000   27.879622
Cu    0.000000    0.000000   39.721622
Cu    0.000000    0.000000   51.563622
Cu    0.000000    0.000000   19.488379
Cu    0.000000    0.000000   31.330379
Cu    0.000000    0.000000   43.172379
Cu    0.000000    0.000000   55.014378
 O    0.000000    0.000000   25.569246
 O    0.000000    0.000000   37.411247
 O    0.000000    0.000000   49.253250
 O    0.000000    0.000000   61.095249
 O    0.000000    0.000000   21.798754
 O    0.000000    0.000000   33.640755
 O    0.000000    0.000000   45.482754
 O    0.000000    0.000000   57.324753
 O    1.972000    0.000000   16.299328
 O    1.972000    0.000000   28.141329
 O    1.972000    0.000000   39.983330
 O    1.972000    0.000000   51.825329
 O    1.972000    0.000000   19.226671
 O    1.972000    0.000000   31.068672
 O    1.972000    0.000000   42.910671
 O    1.972000    0.000000   54.752670
 O    0.000000    1.972000   16.309986
 O    0.000000    1.972000   28.151987
 O    0.000000    1.972000   39.993988
 O    0.000000    1.972000   51.835983
 O    0.000000    1.972000   19.216013
 O    0.000000    1.972000   31.058014
 O    0.000000    1.972000   42.900013
 O    0.000000    1.972000   54.742012
 O    0.000000    1.972000   23.684000
 O    0.000000    1.972000   35.526001
 O    0.000000    1.972000   47.368000
 O    0.000000    1.972000   59.209999
