75
O3 Sr Ti
Sr    1.964900    1.964900    1.949500
Sr    1.964900    1.964900    5.848500
Sr    1.964900    1.964900    9.747499
Sr    1.964900    1.964900   13.646500
Ti    0.000000    0.000000    0.000000
Ti    0.000000    0.000000   15.596000
Ti    0.000000    0.000000    3.899000
Ti    0.000000    0.000000    7.798000
Ti    0.000000    0.000000   11.697000
 O    1.964900    0.000000    0.000000
 O    1.964900    0.000000   15.596000
 O    1.964900    0.000000    3.899000
 O    1.964900    0.000000    7.798000
 O    1.964900    0.000000   11.697000
 O    0.000000    1.964900    0.000000
 O    0.000000    1.964900   15.596000
 O    0.000000    1.964900    3.899000
 O    0.000000    1.964900    7.798000
 O    0.000000    1.964900   11.697000
 O    0.000000    0.000000    1.949500
 O    0.000000    0.000000    5.848500
 O    0.000000    0.000000    9.747499
 O    0.000000    0.000000   13.646500
Ba    1.964900    1.964900   17.724344
Ba    1.964900    1.964900   29.354643
Ba    1.964900    1.964900   40.984943
Ba    1.964900    1.964900   52.615246
Ba    1.964900    1.964900   25.097954
Ba    1.964900    1.964900   36.728256
Ba    1.964900    1.964900   48.358551
Ba    1.964900    1.964900   59.988853
 Y    1.964900    1.964900   21.411150
 Y    1.964900    1.964900   33.041451
 Y    1.964900    1.964900   44.671749
 Y    1.964900    1.964900   56.302048
Cu    0.000000    0.000000   62.117199
Cu    0.000000    0.000000   27.226299
Cu    0.000000    0.000000   38.856598
Cu    0.000000    0.000000   50.486900
Cu    0.000000    0.000000   19.716616
Cu    0.000000    0.000000   31.346914
Cu    0.000000    0.000000   42.977215
Cu    0.000000    0.000000   54.607513
Cu    0.000000    0.000000   23.105684
Cu    0.000000    0.000000   34.735985
Cu    0.000000    0.000000   46.366283
Cu    0.000000    0.000000   57.996582
 O    0.000000    0.000000   17.447544
 O    0.000000    0.000000   29.077843
 O    0.000000    0.000000   40.708141
 O    0.000000    0.000000   52.338440
 O    0.000000    0.000000   25.374756
 O    0.000000    0.000000   37.005054
 O    0.000000    0.000000   48.635357
 O    0.000000    0.000000   60.265656
 O    1.964900    0.000000   19.973644
 O    1.964900    0.000000   31.603945
 O    1.964900    0.000000   43.234245
 O    1.964900    0.000000   54.864544
 O    1.964900    0.000000   22.848654
 O    1.964900    0.000000   34.478954
 O    1.964900    0.000000   46.109253
 O    1.964900    0.000000   57.739552
 O    0.000000    1.964900   19.984112
 O    0.000000    1.964900   31.614412
 O    0.000000    1.964900   43.244713
 O    0.000000    1.964900   54.875011
 O    0.000000    1.964900   22.838186
 O    0.000000    1.964900   34.468487
 O    0.000000    1.964900   46.098785
 O    0.000000    1.964900   57.729084
 O    0.000000    1.964900   62.117199
 O    0.000000    1.964900   27.226299
 O    0.000000    1.964900   38.856598
 O    0.000000    1.964900   50.486900
